Circuit: * C:\Users\navey\Downloads\Optocoupler\Draft1.asc

Limiting rise time of source v1 to 5e-005
Limiting fall time of source v1 to 5e-005
Direct Newton iteration for .op point succeeded.

Date: Mon Oct 24 20:02:12 2022
Total elapsed time: 0.209 seconds.

tnom = 27
temp = 27
method = modified trap
totiter = 6517
traniter = 6475
tranpoints = 2216
accept = 1862
rejected = 354
matrix size = 17
fillins = 0
solver = Normal
Matrix Compiler1: 932 bytes object code size  0.2/0.1/[0.1]
Matrix Compiler2: 1.32 KB object code size  0.1/0.2/[0.1]

