Circuit: * C:\Users\navey\Documents\Git\electrical-G6-BMS\master_rev1\LTSpice_Optocoupler\Draft1.asc

Limiting rise time of source v1 to 5e-005
Limiting fall time of source v1 to 5e-005
Direct Newton iteration for .op point succeeded.

Date: Mon Oct 31 20:47:29 2022
Total elapsed time: 0.538 seconds.

tnom = 27
temp = 27
method = modified trap
totiter = 6517
traniter = 6475
tranpoints = 2216
accept = 1862
rejected = 354
matrix size = 17
fillins = 0
solver = Normal
Matrix Compiler1: 932 bytes object code size  0.4/0.3/[0.1]
Matrix Compiler2: off  [0.2]/0.3/0.3

