Circuit: * C:\Users\navey\Documents\Git\electrical-G6-BMS\master_rev1\LTSpice_Optocoupler\Draft1.asc

Limiting rise time of source v5 to 5e-005
Limiting fall time of source v5 to 5e-005
Limiting rise time of source v3 to 0.0001
Limiting fall time of source v3 to 0.0001
Limiting rise time of source v1 to 5e-005
Limiting fall time of source v1 to 5e-005
WARNING: Node N016 is floating.
WARNING: Node N011 is floating.

WARNING: Less than two connections to node N023.  This node is used by D3.
WARNING: Less than two connections to node N016.  This node is used by D3.
WARNING: Less than two connections to node N017.  This node is used by D6.
WARNING: Less than two connections to node N011.  This node is used by D6.
Direct Newton iteration for .op point succeeded.

Date: Mon Nov 14 17:47:46 2022
Total elapsed time: 0.246 seconds.

tnom = 27
temp = 27
method = modified trap
totiter = 10313
traniter = 10271
tranpoints = 3094
accept = 2493
rejected = 601
matrix size = 53
fillins = 3
solver = Normal
Matrix Compiler1: 2.70 KB object code size  0.5/0.3/[0.2]
Matrix Compiler2: off  [0.3]/0.6/0.4

